bfbflag = .true.
!tprof_n = 1
!tprof_option = 'monthly'

